iidm/iidm-modification/src/test/resources/replace-tl-nb.xml
<?xml version="1.0" encoding="UTF-8"?>
<iidm:network xmlns:iidm="http://www.powsybl.org/schema/iidm/1_18" id="test" caseDate="2023-04-29T14:52:01.427+02:00" forecastDistance="0" sourceFormat="test" minimumValidationLevel="STEADY_STATE_HYPOTHESIS">
    <iidm:substation id="S1">
        <iidm:voltageLevel id="VL" nominalV="1.0" topologyKind="NODE_BREAKER">
            <iidm:nodeBreakerTopology/>
        </iidm:voltageLevel>
    </iidm:substation>
    <iidm:substation id="S2">
        <iidm:voltageLevel id="VL2" nominalV="1.0" topologyKind="NODE_BREAKER">
            <iidm:nodeBreakerTopology/>
        </iidm:voltageLevel>
    </iidm:substation>
    <iidm:line id="TL" r="3.0" x="26.0" b1="1.0000000000148779E-6" b2="1.0000000000148779E-6" node1="0" voltageLevelId1="VL" node2="0" voltageLevelId2="VL2">
        <iidm:alias type="boundaryLine1Id">DL1</iidm:alias>
        <iidm:alias type="boundaryLine2Id">DL2</iidm:alias>
    </iidm:line>
</iidm:network>
